networks/opendss/CKT_4075_07385.dss
! OpenDSS script generated from multiconductor network
Clear

New Circuit.mc_network basekv=12.0 pu=1.000000 angle=0.00 frequency=60.0 phases=3 Mvasc3=143993 Mvasc1=47997.6
~ bus1=-8888882183083.1.2.3

! Line codes
New LineCode.1000_CLP_3PH_12KV_3 nphases=3 units=km Rmatrix=[ 0.010985 | 0 0.010985 | 0 0 0.010985 ] Xmatrix=[ 0.016628 | 0 0.016628 | 0 0 0.016628 ] Cmatrix=[ 0 | 0 0 | 0 0 0 ]
New LineCode.1/0_CLP_3PH_12KV_3 nphases=3 units=km Rmatrix=[ 0.025373 | 0 0.025373 | 0 0 0.025373 ] Xmatrix=[ 0.007755 | 0 0.007755 | 0 0 0.007755 ] Cmatrix=[ 0 | 0 0 | 0 0 0 ]
New LineCode.1/0_CLP_2PH_12KV_2 nphases=2 units=km Rmatrix=[ 0.005363 | 0 0.005363 ] Xmatrix=[ 0.001639 | 0 0.001639 ] Cmatrix=[ 0 | 0 0 ]
New LineCode.336_ACSR_3PH_336_ACSR_N_12KV_4 nphases=4 units=km Rmatrix=[ 0.000794 | 0 0.000794 | 0 0 0.000794 | 0 0 0 0.000794 ] Xmatrix=[ 0.001582 | 0 0.001582 | 0 0 0.001582 | 0 0 0 0.001582 ] Cmatrix=[ 0 | 0 0 | 0 0 0 | 0 0 0 0 ]
New LineCode.653_ACSR_3PH_653_ACSR_N_12KV_4 nphases=4 units=km Rmatrix=[ 0.012813 | 0 0.012813 | 0 0 0.012813 | 0 0 0 0.012813 ] Xmatrix=[ 0.043563 | 0 0.043563 | 0 0 0.043563 | 0 0 0 0.043563 ] Cmatrix=[ 0 | 0 0 | 0 0 0 | 0 0 0 0 ]
New LineCode.1000_JCN_3PH_12KV_3 nphases=3 units=km Rmatrix=[ 0.02284 | 0 0.02284 | 0 0 0.02284 ] Xmatrix=[ 0.034573 | 0 0.034573 | 0 0 0.034573 ] Cmatrix=[ 0 | 0 0 | 0 0 0 ]
New LineCode.350_AL_3PH_12KV_3 nphases=3 units=km Rmatrix=[ 0.004186 | 0 0.004186 | 0 0 0.004186 ] Xmatrix=[ 0.00318 | 0 0.00318 | 0 0 0.00318 ] Cmatrix=[ 0 | 0 0 | 0 0 0 ]
New LineCode.1/0_CLP_1PH_12KV_1 nphases=1 units=km Rmatrix=[ 0.017379 ] Xmatrix=[ 0.005312 ] Cmatrix=[ 0 ]
New LineCode.2_CLP_3PH_12KV_3 nphases=3 units=km Rmatrix=[ 0.04734 | 0 0.04734 | 0 0 0.04734 ] Xmatrix=[ 0.009978 | 0 0.009978 | 0 0 0.009978 ] Cmatrix=[ 0 | 0 0 | 0 0 0 ]
New LineCode.350_AL_1PH_12KV_1 nphases=1 units=km Rmatrix=[ 0.027444 ] Xmatrix=[ 0.020852 ] Cmatrix=[ 0 ]
New LineCode.2_CLP_1PH_12KV_1 nphases=1 units=km Rmatrix=[ 0.168279 ] Xmatrix=[ 0.03547 ] Cmatrix=[ 0 ]
New LineCode.1000_CLP_2PH_12KV_2 nphases=2 units=km Rmatrix=[ 0.000158 | 0 0.000158 ] Xmatrix=[ 0.00024 | 0 0.00024 ] Cmatrix=[ 0 | 0 0 ]
New LineCode.750_CLP_3PH_12KV_3 nphases=3 units=km Rmatrix=[ 0.032837 | 0 0.032837 | 0 0 0.032837 ] Xmatrix=[ 0.040328 | 0 0.040328 | 0 0 0.040328 ] Cmatrix=[ 0 | 0 0 | 0 0 0 ]
New LineCode.2_CLP_2PH_12KV_2 nphases=2 units=km Rmatrix=[ 0.003115 | 0 0.003115 ] Xmatrix=[ 0.000657 | 0 0.000657 ] Cmatrix=[ 0 | 0 0 ]
New LineCode.1/0_JCN_3PH_12KV_3 nphases=3 units=km Rmatrix=[ 0.055194 | 0 0.055194 | 0 0 0.055194 ] Xmatrix=[ 0.01687 | 0 0.01687 | 0 0 0.01687 ] Cmatrix=[ 0 | 0 0 | 0 0 0 ]
New LineCode.750_JCN_3PH_12KV_3 nphases=3 units=km Rmatrix=[ 0.032232 | 0 0.032232 | 0 0 0.032232 ] Xmatrix=[ 0.039585 | 0 0.039585 | 0 0 0.039585 ] Cmatrix=[ 0 | 0 0 | 0 0 0 ]
New LineCode.350_CLP_3PH_12KV_3 nphases=3 units=km Rmatrix=[ 0.00119 | 0 0.00119 | 0 0 0.00119 ] Xmatrix=[ 0.000904 | 0 0.000904 | 0 0 0.000904 ] Cmatrix=[ 0 | 0 0 | 0 0 0 ]
New LineCode.2_JCN_2PH_12KV_2 nphases=2 units=km Rmatrix=[ 0.182159 | 0 0.182159 ] Xmatrix=[ 0.038396 | 0 0.038396 ] Cmatrix=[ 0 | 0 0 ]
New LineCode.1/0_JCN_1PH_12KV_1 nphases=1 units=km Rmatrix=[ 0.069532 ] Xmatrix=[ 0.021252 ] Cmatrix=[ 0 ]
New LineCode.350_CLP_1PH_12KV_1 nphases=1 units=km Rmatrix=[ 0.00379 ] Xmatrix=[ 0.002879 ] Cmatrix=[ 0 ]
New LineCode.336_ACSR_3PH_12KV_3 nphases=3 units=km Rmatrix=[ 0.011409 | 0 0.011409 | 0 0 0.011409 ] Xmatrix=[ 0.025549 | 0 0.025549 | 0 0 0.025549 ] Cmatrix=[ 0 | 0 0 | 0 0 0 ]
New LineCode.4_ACSR_2PH_4_ACSR_N_12KV_2 nphases=2 units=km Rmatrix=[ 0.002713 | 0 0.002713 ] Xmatrix=[ 0.000995 | 0 0.000995 ] Cmatrix=[ 0 | 0 0 ]
New LineCode.4_ACSR_2PH_12KV_2 nphases=2 units=km Rmatrix=[ 0.115362 | 0 0.115362 ] Xmatrix=[ 0.042331 | 0 0.042331 ] Cmatrix=[ 0 | 0 0 ]
New LineCode.2_CU_3PH_12KV_3 nphases=3 units=km Rmatrix=[ 1e-05 | 0 1e-05 | 0 0 1e-05 ] Xmatrix=[ 1e-05 | 0 1e-05 | 0 0 1e-05 ] Cmatrix=[ 0 | 0 0 | 0 0 0 ]
New LineCode.2_CU_2PH_12KV_2 nphases=2 units=km Rmatrix=[ 1e-05 | 0 1e-05 ] Xmatrix=[ 1e-05 | 0 1e-05 ] Cmatrix=[ 0 | 0 0 ]
New LineCode.2_CU_1PH_12KV_1 nphases=1 units=km Rmatrix=[ 1e-05 ] Xmatrix=[ 1e-05 ] Cmatrix=[ 0 ]
New LineCode.336_ATW_3PH_336_ATW_N_12KV_4 nphases=4 units=km Rmatrix=[ 1e-05 | 0 1e-05 | 0 0 1e-05 | 0 0 0 1e-05 ] Xmatrix=[ 1e-05 | 0 1e-05 | 0 0 1e-05 | 0 0 0 1e-05 ] Cmatrix=[ 0 | 0 0 | 0 0 0 | 0 0 0 0 ]
New LineCode.954_ACSR_3PH_954_ACSR_N_12KV_4 nphases=4 units=km Rmatrix=[ 1e-05 | 0 1e-05 | 0 0 1e-05 | 0 0 0 1e-05 ] Xmatrix=[ 1e-05 | 0 1e-05 | 0 0 1e-05 | 0 0 0 1e-05 ] Cmatrix=[ 0 | 0 0 | 0 0 0 | 0 0 0 0 ]
New LineCode.336_ATW_3PH_12KV_3 nphases=3 units=km Rmatrix=[ 1e-05 | 0 1e-05 | 0 0 1e-05 ] Xmatrix=[ 1e-05 | 0 1e-05 | 0 0 1e-05 ] Cmatrix=[ 0 | 0 0 | 0 0 0 ]
New LineCode.1/0_JCN_2PH_12KV_2 nphases=2 units=km Rmatrix=[ 0.000491 | 0 0.000491 ] Xmatrix=[ 0.00015 | 0 0.00015 ] Cmatrix=[ 0 | 0 0 ]

! Lines
New Line.GS2316-2$4170995E phases=3 Bus1=51676624.1.2.3 Bus2=51676742.1.2.3 LineCode=1000_CLP_3PH_12KV_3 Length=0.05926 units=km
New Line.GS2316-1$110393088 phases=3 Bus1=51676616.1.2.3 Bus2=110393090.1.2.3 LineCode=1/0_CLP_3PH_12KV_3 Length=0.013428 units=km
New Line.110393088$J705A-3P phases=3 Bus1=110393091.1.2.3 Bus2=110392972.1.2.3 LineCode=1/0_CLP_3PH_12KV_3 Length=0.001673 units=km
New Line.J705A-1P$110393115 phases=2 Bus1=110392964.1.3 Bus2=110393118.1.3 LineCode=1/0_CLP_2PH_12KV_2 Length=0.001352 units=km
New Line.4170995E$ND51781816 phases=4 Bus1=51676741.0.1.2.3 Bus2=51781816.0.1.2.3 LineCode=336_ACSR_3PH_336_ACSR_N_12KV_4 Length=1.26204 units=km
New Line.4171030E$ND51781816 phases=4 Bus1=51781816.0.1.2.3 Bus2=51754859.0.1.2.3 LineCode=653_ACSR_3PH_653_ACSR_N_12KV_4 Length=1.14111 units=km
New Line.4171030E$ND51781997 phases=4 Bus1=51754860.0.1.2.3 Bus2=51781997.0.1.2.3 LineCode=653_ACSR_3PH_653_ACSR_N_12KV_4 Length=1.39448 units=km
New Line.ND51781997$4171059 phases=4 Bus1=51781997.0.1.2.3 Bus2=189352576.0.1.2.3 LineCode=653_ACSR_3PH_653_ACSR_N_12KV_4 Length=0.213868 units=km
New Line.PS9186$ND51781997 phases=4 Bus1=51781997.0.1.2.3 Bus2=204253096.0.1.2.3 LineCode=653_ACSR_3PH_653_ACSR_N_12KV_4 Length=0.090653 units=km
New Line.PS9186$ND51782397 phases=4 Bus1=204253095.0.1.2.3 Bus2=51782397.0.1.2.3 LineCode=653_ACSR_3PH_653_ACSR_N_12KV_4 Length=0.090653 units=km
New Line.110393115$110393140 phases=2 Bus1=110393117.1.3 Bus2=110393142.1.3 LineCode=1/0_CLP_2PH_12KV_2 Length=0.004907 units=km
New Line.110393140$P5583706-1 phases=2 Bus1=110393143.1.3 Bus2=110392918.1.3 LineCode=1/0_CLP_2PH_12KV_2 Length=0.002909 units=km
New Line.4171052E$GS0970-2 phases=3 Bus1=51728728.1.2.3 Bus2=51676794.1.2.3 LineCode=1000_JCN_3PH_12KV_3 Length=0.070469 units=km
New Line.2203913E$PME1026-2 phases=3 Bus1=51728758.1.2.3 Bus2=51728935.1.2.3 LineCode=350_AL_3PH_12KV_3 Length=0.028143 units=km
New Line.GS0970-1$ND143651719 phases=3 Bus1=51676786.1.2.3 Bus2=143651719.1.2.3 LineCode=1000_JCN_3PH_12KV_3 Length=0.316175 units=km
New Line.GS0970-3$BS0210-1 phases=1 Bus1=51676802.1 Bus2=51677099.1 LineCode=1/0_CLP_1PH_12KV_1 Length=0.024748 units=km
New Line.RCS0963-3$ND143651719 phases=3 Bus1=143651719.1.2.3 Bus2=143651547.1.2.3 LineCode=1000_JCN_3PH_12KV_3 Length=0.102548 units=km
New Line.J476A-3P$ND143651719 phases=3 Bus1=143651719.1.2.3 Bus2=94435663.1.2.3 LineCode=2_CLP_3PH_12KV_3 Length=0.016555 units=km
New Line.PME1026-3$ND177691745 phases=3 Bus1=51728917.1.2.3 Bus2=177691745.1.2.3 LineCode=350_AL_3PH_12KV_3 Length=0.018924 units=km
New Line.V5060478-1$BS0210-1 phases=1 Bus1=51677098.1 Bus2=51754026.1 LineCode=1/0_CLP_1PH_12KV_1 Length=0.024405 units=km
New Line.ND177691745$ND177691729 phases=3 Bus1=177691745.1.2.3 Bus2=177691729.1.2.3 LineCode=350_AL_3PH_12KV_3 Length=0.006069 units=km
New Line.PME1026-4$ND177691801 phases=3 Bus1=51728926.1.2.3 Bus2=177691801.1.2.3 LineCode=2_CLP_3PH_12KV_3 Length=0.327804 units=km
New Line.ND177691745$P5359540-2 phases=1 Bus1=177691745.1 Bus2=51751548.1 LineCode=350_AL_1PH_12KV_1 Length=0.184211 units=km
New Line.ND177691729$ND177691699 phases=3 Bus1=177691729.1.2.3 Bus2=177691699.1.2.3 LineCode=350_AL_3PH_12KV_3 Length=0.00615 units=km
New Line.ND177691801$B5312565-1 phases=1 Bus1=177691801.3 Bus2=51752694.3 LineCode=2_CLP_1PH_12KV_1 Length=0.116535 units=km
New Line.ND177691801$B5312560-2 phases=1 Bus1=177691801.1 Bus2=51754179.1 LineCode=2_CLP_1PH_12KV_1 Length=0.047086 units=km
New Line.ND177691729$ND51755363 phases=1 Bus1=177691729.2 Bus2=51755363.2 LineCode=350_AL_1PH_12KV_1 Length=0.326443 units=km
New Line.ND173806796$RCS0963-2 phases=3 Bus1=143651539.1.2.3 Bus2=173806796.1.2.3 LineCode=1000_JCN_3PH_12KV_3 Length=0.263834 units=km
New Line.V5060478-2$B5060470-1 phases=1 Bus1=51754035.1 Bus2=51677743.1 LineCode=1/0_CLP_1PH_12KV_1 Length=0.115622 units=km
New Line.P5359546-1$ND51755363 phases=1 Bus1=51755363.2 Bus2=51729133.2 LineCode=350_AL_1PH_12KV_1 Length=0.094248 units=km
New Line.P5359547-1$ND51755363 phases=1 Bus1=51755363.2 Bus2=51729277.2 LineCode=350_AL_1PH_12KV_1 Length=0.099589 units=km
New Line.ND177691699$P5359536-1 phases=1 Bus1=177691699.3 Bus2=51751467.3 LineCode=350_AL_1PH_12KV_1 Length=0.105225 units=km
New Line.P5359548-2$ND51755363 phases=1 Bus1=51755363.2 Bus2=51751836.2 LineCode=350_AL_1PH_12KV_1 Length=0.101058 units=km
New Line.J476A-2P$PME6212-4 phases=3 Bus1=94435671.1.2.3 Bus2=94435821.1.2.3 LineCode=2_CLP_3PH_12KV_3 Length=0.057513 units=km
New Line.GS7036-3$ND173806796 phases=3 Bus1=173806796.1.2.3 Bus2=144991911.1.2.3 LineCode=1000_JCN_3PH_12KV_3 Length=0.398298 units=km
New Line.V5051180PT$ND173806796 phases=2 Bus1=173806796.1.3 Bus2=173806778.1.3 LineCode=1000_CLP_2PH_12KV_2 Length=0.001879 units=km
New Line.P5359542-2$P5359540-1 phases=1 Bus1=51751539.1 Bus2=51751620.1 LineCode=350_AL_1PH_12KV_1 Length=0.123598 units=km
New Line.J476A-1P$ND51755410 phases=3 Bus1=94435655.1.2.3 Bus2=51755410.1.2.3 LineCode=2_CLP_3PH_12KV_3 Length=0.079173 units=km
New Line.ND51781366$RCS0963-1 phases=1 Bus1=143651531.3 Bus2=51781366.3 LineCode=1/0_CLP_1PH_12KV_1 Length=0.010367 units=km
New Line.ND51755410$BS0201-1 phases=3 Bus1=51755410.1.2.3 Bus2=51753250.1.2.3 LineCode=2_CLP_3PH_12KV_3 Length=0.003025 units=km
New Line.BS0200-1$ND51755410 phases=3 Bus1=51755410.1.2.3 Bus2=51753298.1.2.3 LineCode=2_CLP_3PH_12KV_3 Length=0.016798 units=km
New Line.ND51755410$BS0209-1 phases=3 Bus1=51755410.1.2.3 Bus2=51753347.1.2.3 LineCode=2_CLP_3PH_12KV_3 Length=0.028519 units=km
New Line.ND51781366$ND51781380 phases=1 Bus1=51781366.3 Bus2=51781380.3 LineCode=1/0_CLP_1PH_12KV_1 Length=0.008961 units=km
New Line.ND177691886$B5312567-2 phases=1 Bus1=177691886.3 Bus2=100099604.3 LineCode=2_CLP_1PH_12KV_1 Length=0.093546 units=km
New Line.ND51781380$BS0145-1 phases=1 Bus1=51781380.3 Bus2=51677146.3 LineCode=1/0_CLP_1PH_12KV_1 Length=0.003563 units=km
New Line.ND51781380$BS0144-1 phases=1 Bus1=51781380.3 Bus2=51677192.3 LineCode=1/0_CLP_1PH_12KV_1 Length=0.008961 units=km
New Line.B5060471-1$B5060470-2 phases=1 Bus1=51677752.1 Bus2=51677815.1 LineCode=1/0_CLP_1PH_12KV_1 Length=0.135695 units=km
New Line.P5359548-1$P5359549-2 phases=1 Bus1=51751827.2 Bus2=51729358.2 LineCode=350_AL_1PH_12KV_1 Length=0.128922 units=km
New Line.P5359537-1$P5359536-2 phases=1 Bus1=51751476.3 Bus2=51753442.3 LineCode=350_AL_1PH_12KV_1 Length=0.083792 units=km
New Line.PME6212-2$94436446 phases=1 Bus1=94435831.2 Bus2=94436449.2 LineCode=2_CLP_1PH_12KV_1 Length=0.001203 units=km
New Line.ND143651746$BS0200-1 phases=1 Bus1=51753297.1 Bus2=143651746.1 LineCode=2_CLP_1PH_12KV_1 Length=0.020553 units=km
New Line.B5060611-1$BS0201-1 phases=1 Bus1=51753251.2 Bus2=51677959.2 LineCode=2_CLP_1PH_12KV_1 Length=0.033347 units=km
New Line.BS0209-1$B5060607-1 phases=1 Bus1=51753348.3 Bus2=51678178.3 LineCode=2_CLP_1PH_12KV_1 Length=0.266086 units=km
New Line.P5359543-2$P5359542-1 phases=1 Bus1=51751611.1 Bus2=51751692.1 LineCode=350_AL_1PH_12KV_1 Length=0.110174 units=km
New Line.PME6212-1$94436421 phases=1 Bus1=94435849.3 Bus2=94436424.3 LineCode=2_CLP_1PH_12KV_1 Length=0.000874 units=km
New Line.PME6212-3$94436471 phases=1 Bus1=94435840.1 Bus2=94436474.1 LineCode=2_CLP_1PH_12KV_1 Length=0.000972 units=km
New Line.ND143651746$V5060477T1 phases=1 Bus1=143651746.1 Bus2=143651686.1 LineCode=2_CLP_1PH_12KV_1 Length=0.170255 units=km
New Line.GS7036-2$ND144992028 phases=3 Bus1=144991903.1.2.3 Bus2=144992028.1.2.3 LineCode=1/0_CLP_3PH_12KV_3 Length=0.022912 units=km
New Line.ND167797049$BS0144-1 phases=1 Bus1=51677193.3 Bus2=167797049.3 LineCode=1/0_CLP_1PH_12KV_1 Length=0.005078 units=km
New Line.ND143651746$B5060601-2 phases=1 Bus1=143651746.1 Bus2=51712902.1 LineCode=2_CLP_1PH_12KV_1 Length=0.399238 units=km
New Line.B5051169-2$BS0145-1 phases=1 Bus1=51677145.3 Bus2=51713046.3 LineCode=1/0_CLP_1PH_12KV_1 Length=0.189824 units=km
New Line.94436446$ND96618559 phases=1 Bus1=94436448.2 Bus2=96618559.2 LineCode=2_CLP_1PH_12KV_1 Length=0.299378 units=km
New Line.ND144992194$GS7036-1 phases=3 Bus1=144991895.1.2.3 Bus2=144992194.1.2.3 LineCode=1000_JCN_3PH_12KV_3 Length=0.289403 units=km
New Line.P5359537-2$232255214 phases=1 Bus1=51753451.3 Bus2=232255216.3 LineCode=350_AL_1PH_12KV_1 Length=0.142262 units=km
New Line.B5060472-2$B5060471-2 phases=1 Bus1=51677824.1 Bus2=51677896.1 LineCode=1/0_CLP_1PH_12KV_1 Length=0.080168 units=km
New Line.B5051170-1$ND167797049 phases=1 Bus1=167797049.3 Bus2=51713253.3 LineCode=1/0_CLP_1PH_12KV_1 Length=0.101348 units=km
New Line.ND144992028$BS0142-1 phases=1 Bus1=144992028.3 Bus2=51713398.3 LineCode=1/0_CLP_1PH_12KV_1 Length=0.034766 units=km
New Line.ND144992028$BS0143-1 phases=1 Bus1=144992028.2 Bus2=51713445.2 LineCode=1/0_CLP_1PH_12KV_1 Length=0.06916 units=km
New Line.V5051180T1$ND167797049 phases=1 Bus1=167797049.3 Bus2=51755041.3 LineCode=1/0_CLP_1PH_12KV_1 Length=0.006085 units=km
New Line.B5312567-1$ND51782754 phases=1 Bus1=100099595.3 Bus2=51782754.3 LineCode=2_CLP_1PH_12KV_1 Length=0.039943 units=km
New Line.ND94436316$94436471 phases=1 Bus1=94436473.1 Bus2=94436316.1 LineCode=2_CLP_1PH_12KV_1 Length=0.019387 units=km
New Line.ND96618559$94436605 phases=1 Bus1=96618559.2 Bus2=94436607.2 LineCode=2_CLP_1PH_12KV_1 Length=0.076778 units=km
New Line.ND96618559$96618715 phases=1 Bus1=96618559.2 Bus2=96618717.2 LineCode=2_CLP_1PH_12KV_1 Length=0.044051 units=km
New Line.94436421$96619285 phases=1 Bus1=94436423.3 Bus2=96619287.3 LineCode=2_CLP_1PH_12KV_1 Length=0.095467 units=km
New Line.ND144992194$ND142110205 phases=2 Bus1=144992194.1.3 Bus2=142110205.1.3 LineCode=1/0_CLP_2PH_12KV_2 Length=0.007637 units=km
New Line.B5060607-2$B5060603-2 phases=1 Bus1=51678187.3 Bus2=51712683.3 LineCode=2_CLP_1PH_12KV_1 Length=0.221452 units=km
New Line.GS0953-1$ND144992194 phases=3 Bus1=144992194.1.2.3 Bus2=51714579.1.2.3 LineCode=1000_JCN_3PH_12KV_3 Length=0.235493 units=km
New Line.B5312568-2$ND51782754 phases=1 Bus1=51782754.3 Bus2=51729790.3 LineCode=2_CLP_1PH_12KV_1 Length=0.125194 units=km
New Line.B5312569-2$ND51782754 phases=1 Bus1=51782754.3 Bus2=51751332.3 LineCode=2_CLP_1PH_12KV_1 Length=0.166531 units=km
New Line.P5359544-2$P5359543-1 phases=1 Bus1=51751683.1 Bus2=51751764.1 LineCode=350_AL_1PH_12KV_1 Length=0.118573 units=km
New Line.B5060611-2$ND51781474 phases=1 Bus1=51677968.2 Bus2=51781474.2 LineCode=2_CLP_1PH_12KV_1 Length=0.048856 units=km
New Line.94436505$ND94436316 phases=1 Bus1=94436316.1 Bus2=94436507.1 LineCode=2_CLP_1PH_12KV_1 Length=0.012268 units=km
New Line.ND94436316$94436555 phases=1 Bus1=94436316.1 Bus2=94436557.1 LineCode=2_CLP_1PH_12KV_1 Length=0.049679 units=km
New Line.B5060610-1$ND51781474 phases=1 Bus1=51781474.2 Bus2=51678031.2 LineCode=2_CLP_1PH_12KV_1 Length=0.028206 units=km
New Line.ND51781474$B5060608-1 phases=1 Bus1=51781474.2 Bus2=51678250.2 LineCode=2_CLP_1PH_12KV_1 Length=0.226503 units=km
New Line.B5060602-2$B5060601-1 phases=1 Bus1=51712893.1 Bus2=51712974.1 LineCode=2_CLP_1PH_12KV_1 Length=0.088486 units=km
New Line.B5051168-2$B5051169-1 phases=1 Bus1=51713037.3 Bus2=51713118.3 LineCode=1/0_CLP_1PH_12KV_1 Length=0.088274 units=km
New Line.BS0143-1$B5051176-2 phases=1 Bus1=51713444.2 Bus2=51713644.2 LineCode=1/0_CLP_1PH_12KV_1 Length=0.094644 units=km
New Line.ND142110205$BS0222-1 phases=1 Bus1=142110205.1 Bus2=51713851.1 LineCode=1/0_CLP_1PH_12KV_1 Length=0.018975 units=km
New Line.ND142110205$BS0220-1 phases=1 Bus1=142110205.3 Bus2=51713945.3 LineCode=1/0_CLP_1PH_12KV_1 Length=0.017274 units=km
New Line.232255214$P5359538-1 phases=1 Bus1=232255217.3 Bus2=51729205.3 LineCode=350_AL_1PH_12KV_1 Length=0.002711 units=km
New Line.BS0142-1$ND51755522 phases=1 Bus1=51713397.3 Bus2=51755522.3 LineCode=1/0_CLP_1PH_12KV_1 Length=0.017623 units=km
New Line.94436605$P5550526-1 phases=1 Bus1=94436608.2 Bus2=94436145.2 LineCode=2_CLP_1PH_12KV_1 Length=0.001186 units=km
New Line.96618715$P5569275-2 phases=1 Bus1=96618718.2 Bus2=96618200.2 LineCode=2_CLP_1PH_12KV_1 Length=0.001456 units=km
New Line.96619285$P5569266-2 phases=1 Bus1=96619288.3 Bus2=96618820.3 LineCode=2_CLP_1PH_12KV_1 Length=0.001871 units=km
New Line.B5051171-1$B5051170-2 phases=1 Bus1=51713262.3 Bus2=51713325.3 LineCode=1/0_CLP_1PH_12KV_1 Length=0.160821 units=km
New Line.B5051175-1$ND51755522 phases=1 Bus1=51755522.3 Bus2=51713491.3 LineCode=1/0_CLP_1PH_12KV_1 Length=0.174339 units=km
New Line.B5060472-1$N1505116 phases=1 Bus1=51677887.1 Bus2=51754592.1 LineCode=1/0_CLP_1PH_12KV_1 Length=0.006831 units=km
New Line.ND51755522$V5051181 phases=1 Bus1=51755522.3 Bus2=51755045.3 LineCode=1/0_CLP_1PH_12KV_1 Length=0.004369 units=km
New Line.P5563259-2$94436505 phases=1 Bus1=94436508.1 Bus2=94435950.1 LineCode=2_CLP_1PH_12KV_1 Length=0.001317 units=km
New Line.94436555$P5563260-2 phases=1 Bus1=94436558.1 Bus2=94436018.1 LineCode=2_CLP_1PH_12KV_1 Length=0.001171 units=km
New Line.B5060604-2$B5060603-1 phases=1 Bus1=51712674.3 Bus2=51712755.3 LineCode=2_CLP_1PH_12KV_1 Length=0.257636 units=km
New Line.BS0220-1$B5136078-1 phases=1 Bus1=51713946.3 Bus2=51714208.3 LineCode=1/0_CLP_1PH_12KV_1 Length=0.045445 units=km
New Line.B5136085-2$BS0222-1 phases=1 Bus1=51713852.1 Bus2=51714505.1 LineCode=1/0_CLP_1PH_12KV_1 Length=0.400756 units=km
New Line.P5359544-1$P5359545-2 phases=1 Bus1=51751755.1 Bus2=51729070.1 LineCode=350_AL_1PH_12KV_1 Length=0.121031 units=km
New Line.B5060602-1$B5060473-2 phases=1 Bus1=51712965.1 Bus2=51677392.1 LineCode=2_CLP_1PH_12KV_1 Length=0.124097 units=km
New Line.B5060609-1$B5060608-2 phases=1 Bus1=51678259.2 Bus2=51677455.2 LineCode=2_CLP_1PH_12KV_1 Length=0.134167 units=km
New Line.B5060468-1$B5060610-2 phases=1 Bus1=51678040.2 Bus2=51678103.2 LineCode=2_CLP_1PH_12KV_1 Length=0.121646 units=km
New Line.B5051167-1$B5051168-1 phases=1 Bus1=51713109.3 Bus2=51713181.3 LineCode=1/0_CLP_1PH_12KV_1 Length=0.135373 units=km
New Line.B5051177-2$B5051176-1 phases=1 Bus1=51713635.2 Bus2=51713716.2 LineCode=1/0_CLP_1PH_12KV_1 Length=0.119808 units=km
New Line.N1505116$5060606 phases=1 Bus1=51754591.1 Bus2=51754604.1 LineCode=2_CLP_1PH_12KV_1 Length=0.089284 units=km
New Line.GS0953-2$ND51781760 phases=3 Bus1=51714587.1.2.3 Bus2=51781760.1.2.3 LineCode=1000_JCN_3PH_12KV_3 Length=0.086116 units=km
New Line.94436630$P5550526-2 phases=1 Bus1=94436154.2 Bus2=94436633.2 LineCode=2_CLP_1PH_12KV_1 Length=0.001039 units=km
New Line.P5569275-1$96618740 phases=1 Bus1=96618191.2 Bus2=96618743.2 LineCode=2_CLP_1PH_12KV_1 Length=0.001489 units=km
New Line.P5569266-1$ND96619248 phases=1 Bus1=96618811.3 Bus2=96619248.3 LineCode=2_CLP_1PH_12KV_1 Length=0.001908 units=km
New Line.B5051171-2$B5051172-1 phases=1 Bus1=51713334.3 Bus2=51677239.3 LineCode=1/0_CLP_1PH_12KV_1 Length=0.104635 units=km
New Line.B5051174-1$B5051175-2 phases=1 Bus1=51713500.3 Bus2=51713563.3 LineCode=1/0_CLP_1PH_12KV_1 Length=0.144785 units=km
New Line.OS0950-2$GS0953-3 phases=3 Bus1=51714595.1.2.3 Bus2=51725615.1.2.3 LineCode=1/0_CLP_3PH_12KV_3 Length=0.166144 units=km
New Line.ND51781760$GS0971-2 phases=3 Bus1=51781760.1.2.3 Bus2=51754430.1.2.3 LineCode=1000_JCN_3PH_12KV_3 Length=0.191764 units=km
New Line.ND51781760$ND51782178 phases=1 Bus1=51781760.1 Bus2=51782178.1 LineCode=1/0_CLP_1PH_12KV_1 Length=0.00713 units=km
New Line.94436580$P5563260-1 phases=1 Bus1=94436009.1 Bus2=94436583.1 LineCode=2_CLP_1PH_12KV_1 Length=0.001149 units=km
New Line.ND96619248$96303630 phases=1 Bus1=96619248.3 Bus2=96303633.3 LineCode=2_CLP_1PH_12KV_1 Length=0.001536 units=km
New Line.96303655$ND96619248 phases=1 Bus1=96619248.3 Bus2=96303657.3 LineCode=2_CLP_1PH_12KV_1 Length=0.148802 units=km
New Line.ND142110270$B5136078-2 phases=1 Bus1=51714217.3 Bus2=142110270.3 LineCode=1/0_CLP_1PH_12KV_1 Length=0.216894 units=km
New Line.B5060604-1$B5060606-1 phases=1 Bus1=51712746.3 Bus2=51712818.3 LineCode=2_CLP_1PH_12KV_1 Length=0.112359 units=km
New Line.5060606$B5060606-2 phases=1 Bus1=51754605.3 Bus2=51712827.3 LineCode=2_CLP_1PH_12KV_1 Length=0.22987 units=km
New Line.B5136085-1$B5136086-2 phases=1 Bus1=51714496.1 Bus2=51714001.1 LineCode=1/0_CLP_1PH_12KV_1 Length=0.172004 units=km
New Line.B5136091-1$ND51782178 phases=1 Bus1=51782178.1 Bus2=51714756.1 LineCode=1/0_CLP_1PH_12KV_1 Length=0.10935 units=km
New Line.B5136089-2$ND51782178 phases=1 Bus1=51782178.1 Bus2=51714837.1 LineCode=1/0_CLP_1PH_12KV_1 Length=0.115437 units=km
New Line.94436655$94436630 phases=1 Bus1=94436632.2 Bus2=94436657.2 LineCode=2_CLP_1PH_12KV_1 Length=0.122029 units=km
New Line.96618740$96618765 phases=1 Bus1=96618742.2 Bus2=96618767.2 LineCode=2_CLP_1PH_12KV_1 Length=0.093472 units=km
New Line.B5051167-2$B5051166-1 phases=1 Bus1=51713190.3 Bus2=51677311.3 LineCode=1/0_CLP_1PH_12KV_1 Length=0.277451 units=km
New Line.B5060468-2$B5060469-1 phases=1 Bus1=51678112.2 Bus2=51677527.2 LineCode=2_CLP_1PH_12KV_1 Length=0.086334 units=km
New Line.B5051178-2$B5051177-1 phases=1 Bus1=51713707.2 Bus2=51713788.2 LineCode=1/0_CLP_1PH_12KV_1 Length=0.162286 units=km
New Line.B5136080-1$ND142110270 phases=1 Bus1=142110270.3 Bus2=51714280.3 LineCode=1/0_CLP_1PH_12KV_1 Length=0.119932 units=km
New Line.B5136079-1$ND142110270 phases=1 Bus1=142110270.3 Bus2=51714352.3 LineCode=1/0_CLP_1PH_12KV_1 Length=0.008236 units=km
New Line.94436331$94436580 phases=1 Bus1=94436582.1 Bus2=94436333.1 LineCode=2_CLP_1PH_12KV_1 Length=0.061436 units=km
New Line.96303630$96303780 phases=1 Bus1=96303632.3 Bus2=96303782.3 LineCode=2_CLP_1PH_12KV_1 Length=0.124004 units=km
New Line.P5569269-1$96303655 phases=1 Bus1=96303658.3 Bus2=96618884.3 LineCode=2_CLP_1PH_12KV_1 Length=0.000732 units=km
New Line.B5051174-2$B5051173-1 phases=1 Bus1=51713572.3 Bus2=51677599.3 LineCode=1/0_CLP_1PH_12KV_1 Length=0.118034 units=km
New Line.P5550527-1$94436655 phases=1 Bus1=94436658.2 Bus2=94436213.2 LineCode=2_CLP_1PH_12KV_1 Length=0.001031 units=km
New Line.96618765$P5569276-2 phases=1 Bus1=96618768.2 Bus2=96618268.2 LineCode=2_CLP_1PH_12KV_1 Length=0.001206 units=km
New Line.PME7594-1$GS0971-3 phases=3 Bus1=51754438.1.2.3 Bus2=167797180.1.2.3 LineCode=1000_JCN_3PH_12KV_3 Length=0.570836 units=km
New Line.OS0950-3$ND169833830 phases=3 Bus1=51725631.1.2.3 Bus2=169833830.1.2.3 LineCode=750_CLP_3PH_12KV_3 Length=0.018941 units=km
New Line.ND51781576$GS0971-1 phases=3 Bus1=51754422.1.2.3 Bus2=51781576.1.2.3 LineCode=1/0_CLP_3PH_12KV_3 Length=0.121938 units=km
New Line.OS0950-1$ND51782495 phases=3 Bus1=51725623.1.2.3 Bus2=51782495.1.2.3 LineCode=1/0_CLP_3PH_12KV_3 Length=0.114642 units=km
New Line.94436331$P5563261-1 phases=1 Bus1=94436334.1 Bus2=94436077.1 LineCode=2_CLP_1PH_12KV_1 Length=0.001334 units=km
New Line.96303780$P5569267-2 phases=1 Bus1=96303783.3 Bus2=96619097.3 LineCode=2_CLP_1PH_12KV_1 Length=0.001351 units=km
New Line.B5051178-1$B5051179-2 phases=1 Bus1=51713779.2 Bus2=51677680.2 LineCode=1/0_CLP_1PH_12KV_1 Length=0.116456 units=km
New Line.B5136080-2$B5136081-1 phases=1 Bus1=51714289.3 Bus2=51714136.3 LineCode=1/0_CLP_1PH_12KV_1 Length=0.080758 units=km
New Line.B5136079-2$B5136083-1 phases=1 Bus1=51714361.3 Bus2=51714424.3 LineCode=1/0_CLP_1PH_12KV_1 Length=0.207747 units=km
New Line.ND51781576$BS0350-1 phases=1 Bus1=51781576.1 Bus2=51715549.1 LineCode=1/0_CLP_1PH_12KV_1 Length=0.006161 units=km
New Line.ND51782495$BS0088-1 phases=1 Bus1=51782495.3 Bus2=51725551.3 LineCode=1/0_CLP_1PH_12KV_1 Length=0.004728 units=km
New Line.ND169833830$OS0949-2 phases=3 Bus1=169833830.1.2.3 Bus2=51726653.1.2.3 LineCode=750_CLP_3PH_12KV_3 Length=0.291943 units=km
New Line.OS0950-4$0154204 phases=3 Bus1=51725639.1.2.3 Bus2=51755083.1.2.3 LineCode=1/0_CLP_3PH_12KV_3 Length=0.034275 units=km
New Line.ND51781576$ND51781584 phases=2 Bus1=51781576.2.3 Bus2=51781584.2.3 LineCode=1/0_CLP_2PH_12KV_2 Length=0.025161 units=km
New Line.ND169833830$ND51781683 phases=2 Bus1=169833830.1.2 Bus2=51781683.1.2 LineCode=2_CLP_2PH_12KV_2 Length=0.026596 units=km
New Line.ND51782495$ND51782266 phases=2 Bus1=51782495.1.2 Bus2=51782266.1.2 LineCode=1/0_CLP_2PH_12KV_2 Length=0.026475 units=km
New Line.P5569269-2$96303680 phases=1 Bus1=96618893.3 Bus2=96303683.3 LineCode=2_CLP_1PH_12KV_1 Length=0.000887 units=km
New Line.ND51781584$BS0351-1 phases=1 Bus1=51781584.2 Bus2=51715596.2 LineCode=1/0_CLP_1PH_12KV_1 Length=0.00608 units=km
New Line.ND51782266$BS0086-1 phases=1 Bus1=51782266.1 Bus2=51716869.1 LineCode=1/0_CLP_1PH_12KV_1 Length=0.032227 units=km
New Line.ND51782266$BS0087-1 phases=1 Bus1=51782266.2 Bus2=51716916.2 LineCode=1/0_CLP_1PH_12KV_1 Length=0.00468 units=km
New Line.ND51781683$BS0127-1 phases=1 Bus1=51781683.1 Bus2=51726543.1 LineCode=2_CLP_1PH_12KV_1 Length=0.004316 units=km
New Line.BS0126-1$ND51781683 phases=1 Bus1=51781683.2 Bus2=51726590.2 LineCode=2_CLP_1PH_12KV_1 Length=0.027492 units=km
New Line.ND51781584$BS0352-1 phases=1 Bus1=51781584.3 Bus2=51753016.3 LineCode=1/0_CLP_1PH_12KV_1 Length=0.030249 units=km
New Line.B5161464-1$BS0350-1 phases=1 Bus1=51715548.1 Bus2=51716362.1 LineCode=1/0_CLP_1PH_12KV_1 Length=0.004358 units=km
New Line.BS0088-1$ND51781422 phases=1 Bus1=51725552.3 Bus2=51781422.3 LineCode=1/0_CLP_1PH_12KV_1 Length=0.004298 units=km
New Line.4002969E$PME7594-4 phases=3 Bus1=167797162.1.2.3 Bus2=62512639.1.2.3 LineCode=1000_JCN_3PH_12KV_3 Length=0.020445 units=km
New Line.P5563261-2$94436530 phases=1 Bus1=94436086.1 Bus2=94436533.1 LineCode=2_CLP_1PH_12KV_1 Length=0.000948 units=km
New Line.96303680$96303705 phases=1 Bus1=96303682.3 Bus2=96303707.3 LineCode=2_CLP_1PH_12KV_1 Length=0.084019 units=km
New Line.P5569267-1$96303805 phases=1 Bus1=96619088.3 Bus2=96303808.3 LineCode=2_CLP_1PH_12KV_1 Length=0.000926 units=km
New Line.PME7594-3$ND167797399 phases=3 Bus1=167797153.1.2.3 Bus2=167797399.1.2.3 LineCode=1/0_JCN_3PH_12KV_3 Length=0.317245 units=km
New Line.B5136083-2$B5136084-1 phases=1 Bus1=51714433.3 Bus2=51714064.3 LineCode=1/0_CLP_1PH_12KV_1 Length=0.081501 units=km
New Line.B5161463-2$BS0352-1 phases=1 Bus1=51753017.3 Bus2=51716443.3 LineCode=1/0_CLP_1PH_12KV_1 Length=0.066248 units=km
New Line.BS0087-1$P5016074-A phases=1 Bus1=51716917.2 Bus2=51726172.2 LineCode=1/0_CLP_1PH_12KV_1 Length=0.292015 units=km
New Line.BS0127-1$P5044072-1 phases=1 Bus1=51726542.1 Bus2=51726815.1 LineCode=2_CLP_1PH_12KV_1 Length=0.150448 units=km
New Line.P5044074-2$BS0126-1 phases=1 Bus1=51726589.2 Bus2=51726896.2 LineCode=2_CLP_1PH_12KV_1 Length=0.224182 units=km
New Line.BS0086-1$P5016071-1 phases=1 Bus1=51716870.1 Bus2=51727034.1 LineCode=1/0_CLP_1PH_12KV_1 Length=0.087637 units=km
New Line.ND51781422$V5016083 phases=1 Bus1=51781422.3 Bus2=51755033.3 LineCode=1/0_CLP_1PH_12KV_1 Length=0.003362 units=km
New Line.BS0351-1$ND51781727 phases=1 Bus1=51715595.2 Bus2=51781727.2 LineCode=1/0_CLP_1PH_12KV_1 Length=0.151757 units=km
New Line.PME7594-2$ND62527403 phases=3 Bus1=167797171.1.2.3 Bus2=62527403.1.2.3 LineCode=750_JCN_3PH_12KV_3 Length=0.042186 units=km
New Line.71658451$ND51781422 phases=1 Bus1=51781422.3 Bus2=71658453.3 LineCode=1/0_CLP_1PH_12KV_1 Length=0.266523 units=km
New Line.ND167797399$ND167797464 phases=3 Bus1=167797399.1.2.3 Bus2=167797464.1.2.3 LineCode=1/0_JCN_3PH_12KV_3 Length=0.253591 units=km
New Line.OS0949-1$ND169833894 phases=3 Bus1=51726661.1.2.3 Bus2=169833894.1.2.3 LineCode=1/0_JCN_3PH_12KV_3 Length=0.268728 units=km
New Line.ND51781727$B5152844-1 phases=1 Bus1=51781727.2 Bus2=51716509.2 LineCode=1/0_CLP_1PH_12KV_1 Length=0.124779 units=km
New Line.ND51781727$B5161451-1 phases=1 Bus1=51781727.2 Bus2=51716725.2 LineCode=1/0_CLP_1PH_12KV_1 Length=0.046056 units=km
New Line.OS0949-3$GS2830-3 phases=3 Bus1=51726669.1.2.3 Bus2=51753090.1.2.3 LineCode=750_CLP_3PH_12KV_3 Length=0.072801 units=km
New Line.PME2784-1$ND62527403 phases=3 Bus1=62527403.1.2.3 Bus2=62512521.1.2.3 LineCode=350_CLP_3PH_12KV_3 Length=0.385823 units=km
New Line.ND62527334$ND167797399 phases=1 Bus1=167797399.2 Bus2=62527334.2 LineCode=1/0_CLP_1PH_12KV_1 Length=0.063136 units=km
New Line.ND62527403$ND62528941 phases=3 Bus1=62527403.1.2.3 Bus2=62528941.1.2.3 LineCode=1/0_CLP_3PH_12KV_3 Length=0.165508 units=km
New Line.96303805$96303830 phases=1 Bus1=96303807.3 Bus2=96303832.3 LineCode=2_CLP_1PH_12KV_1 Length=0.09348 units=km
New Line.94436530$96618588 phases=1 Bus1=94436532.1 Bus2=96618590.1 LineCode=2_CLP_1PH_12KV_1 Length=0.129641 units=km
New Line.96303705$P5569270-1 phases=1 Bus1=96303708.3 Bus2=96618952.3 LineCode=2_CLP_1PH_12KV_1 Length=0.001242 units=km
New Line.ND62528941$ND150711099 phases=3 Bus1=62528941.1.2.3 Bus2=150711099.1.2.3 LineCode=2_CLP_3PH_12KV_3 Length=0.015505 units=km
New Line.ND167797480$ND167797464 phases=3 Bus1=167797464.1.2.3 Bus2=167797480.1.2.3 LineCode=1/0_CLP_3PH_12KV_3 Length=0.005975 units=km
New Line.OS0949-4$V5016082 phases=1 Bus1=51726677.3 Bus2=169255718.3 LineCode=1/0_CLP_1PH_12KV_1 Length=0.001913 units=km
New Line.P5634845-1$ND169833894 phases=3 Bus1=169833894.1.2.3 Bus2=169833911.1.2.3 LineCode=1/0_JCN_3PH_12KV_3 Length=0.133274 units=km
New Line.ND169833894$169833975 phases=3 Bus1=169833894.1.2.3 Bus2=169833977.1.2.3 LineCode=1/0_JCN_3PH_12KV_3 Length=0.218497 units=km
New Line.ND62528941$177747124 phases=1 Bus1=62528941.2 Bus2=177747126.2 LineCode=2_CLP_1PH_12KV_1 Length=0.018432 units=km
New Line.71658451$P5016077-B phases=1 Bus1=71658454.3 Bus2=51725781.3 LineCode=1/0_CLP_1PH_12KV_1 Length=0.00213 units=km
...

! Switches
New Line.51676622$51676630 phases=3 Bus1=51676609.1.2.3 Bus2=51676603.1.2.3 switch=y r1=0.001 x1=0.001 r0=0.001 x0=0.001 Length=0.001 units=km
New Line.51676614$51676622 phases=3 Bus1=51676603.1.2.3 Bus2=51676602.1.2.3 switch=y r1=0.001 x1=0.001 r0=0.001 x0=0.001 Length=0.001 units=km
New Line.110393088 phases=3 Bus1=110393090.1.2.3 Bus2=110393091.1.2.3 switch=y r1=0.001 x1=0.001 r0=0.001 x0=0.001 Length=0.001 units=km
New Line.110392977$110392969 phases=3 Bus1=110392973.1.2.3 Bus2=110392981.1.2.3 switch=y r1=0.001 x1=0.001 r0=0.001 x0=0.001 Length=0.001 units=km
New Line.110392961$110392977 phases=3 Bus1=110392981.1.2.3 Bus2=110392965.1.2.3 switch=y r1=0.001 x1=0.001 r0=0.001 x0=0.001 Length=0.001 units=km
New Line.110393115 phases=2 Bus1=110393118.1.3 Bus2=110393117.1.3 switch=y r1=0.001 x1=0.001 r0=0.001 x0=0.001 Length=0.001 units=km
New Line.110393140 phases=2 Bus1=110393142.1.3 Bus2=110393143.1.3 switch=y r1=0.001 x1=0.001 r0=0.001 x0=0.001 Length=0.001 units=km
New Line.51676784$51676792 phases=3 Bus1=51676773.1.2.3 Bus2=51676772.1.2.3 switch=y r1=0.001 x1=0.001 r0=0.001 x0=0.001 Length=0.001 units=km
New Line.51676792$GS0970-3 phases=3 Bus1=51676773.1.2.3 Bus2=51676779.1.2.3 switch=y r1=0.001 x1=0.001 r0=0.001 x0=0.001 Length=0.001 units=km
New Line.PME1026-3$PME1026-4 phases=3 Bus1=51728908.1.2.3 Bus2=51728909.1.2.3 switch=y r1=0.001 x1=0.001 r0=0.001 x0=0.001 Length=0.001 units=km
New Line.143651537$143651545 phases=3 Bus1=143651524.1.2.3 Bus2=143651518.1.2.3 switch=y r1=0.001 x1=0.001 r0=0.001 x0=0.001 Length=0.001 units=km
New Line.94435668$94435660 phases=3 Bus1=94435664.1.2.3 Bus2=94435672.1.2.3 switch=y r1=0.001 x1=0.001 r0=0.001 x0=0.001 Length=0.001 units=km
New Line.RCS0963-1$143651537 phases=3 Bus1=143651518.1.2.3 Bus2=143651517.1.2.3 switch=y r1=0.001 x1=0.001 r0=0.001 x0=0.001 Length=0.001 units=km
New Line.94435652$94435668 phases=3 Bus1=94435672.1.2.3 Bus2=94435656.1.2.3 switch=y r1=0.001 x1=0.001 r0=0.001 x0=0.001 Length=0.001 units=km
New Line.PME6212-4$PME6212-1 phases=3 Bus1=94435807.1.2.3 Bus2=94435808.1.2.3 switch=y r1=0.001 x1=0.001 r0=0.001 x0=0.001 Length=0.001 units=km
New Line.PME6212-4$PME6212-3 phases=3 Bus1=94435807.1.2.3 Bus2=94435814.1.2.3 switch=y r1=0.001 x1=0.001 r0=0.001 x0=0.001 Length=0.001 units=km
New Line.GS7036-2$144991909 phases=3 Bus1=144991888.1.2.3 Bus2=144991882.1.2.3 switch=y r1=0.001 x1=0.001 r0=0.001 x0=0.001 Length=0.001 units=km
New Line.144991893$GS7036-2 phases=3 Bus1=144991882.1.2.3 Bus2=144991881.1.2.3 switch=y r1=0.001 x1=0.001 r0=0.001 x0=0.001 Length=0.001 units=km
New Line.94436446 phases=1 Bus1=94436449.2 Bus2=94436448.2 switch=y r1=0.001 x1=0.001 r0=0.001 x0=0.001 Length=0.001 units=km
New Line.94436421 phases=1 Bus1=94436424.3 Bus2=94436423.3 switch=y r1=0.001 x1=0.001 r0=0.001 x0=0.001 Length=0.001 units=km
New Line.94436471 phases=1 Bus1=94436474.1 Bus2=94436473.1 switch=y r1=0.001 x1=0.001 r0=0.001 x0=0.001 Length=0.001 units=km
New Line.232255214 phases=1 Bus1=232255216.3 Bus2=232255217.3 switch=y r1=0.001 x1=0.001 r0=0.001 x0=0.001 Length=0.001 units=km
New Line.94436605 phases=1 Bus1=94436607.2 Bus2=94436608.2 switch=y r1=0.001 x1=0.001 r0=0.001 x0=0.001 Length=0.001 units=km
New Line.96618715 phases=1 Bus1=96618717.2 Bus2=96618718.2 switch=y r1=0.001 x1=0.001 r0=0.001 x0=0.001 Length=0.001 units=km
New Line.96619285 phases=1 Bus1=96619287.3 Bus2=96619288.3 switch=y r1=0.001 x1=0.001 r0=0.001 x0=0.001 Length=0.001 units=km
New Line.94436505 phases=1 Bus1=94436507.1 Bus2=94436508.1 switch=y r1=0.001 x1=0.001 r0=0.001 x0=0.001 Length=0.001 units=km
New Line.94436555 phases=1 Bus1=94436557.1 Bus2=94436558.1 switch=y r1=0.001 x1=0.001 r0=0.001 x0=0.001 Length=0.001 units=km
New Line.51714577$51714585 phases=3 Bus1=51714565.1.2.3 Bus2=51714566.1.2.3 switch=y r1=0.001 x1=0.001 r0=0.001 x0=0.001 Length=0.001 units=km
New Line.51714585$51714593 phases=3 Bus1=51714566.1.2.3 Bus2=51714572.1.2.3 switch=y r1=0.001 x1=0.001 r0=0.001 x0=0.001 Length=0.001 units=km
New Line.94436630 phases=1 Bus1=94436633.2 Bus2=94436632.2 switch=y r1=0.001 x1=0.001 r0=0.001 x0=0.001 Length=0.001 units=km
New Line.96618740 phases=1 Bus1=96618743.2 Bus2=96618742.2 switch=y r1=0.001 x1=0.001 r0=0.001 x0=0.001 Length=0.001 units=km
New Line.94436580 phases=1 Bus1=94436583.1 Bus2=94436582.1 switch=y r1=0.001 x1=0.001 r0=0.001 x0=0.001 Length=0.001 units=km
New Line.96303630 phases=1 Bus1=96303633.3 Bus2=96303632.3 switch=y r1=0.001 x1=0.001 r0=0.001 x0=0.001 Length=0.001 units=km
New Line.96303655 phases=1 Bus1=96303657.3 Bus2=96303658.3 switch=y r1=0.001 x1=0.001 r0=0.001 x0=0.001 Length=0.001 units=km
New Line.OS0950-1$51725613 phases=3 Bus1=51725596.1.2.3 Bus2=51725595.1.2.3 switch=y r1=0.001 x1=0.001 r0=0.001 x0=0.001 Length=0.001 units=km
New Line.51725613$51725629 phases=3 Bus1=51725596.1.2.3 Bus2=51725602.1.2.3 switch=y r1=0.001 x1=0.001 r0=0.001 x0=0.001 Length=0.001 units=km
New Line.GS0971-1$51754428 phases=3 Bus1=51754409.1.2.3 Bus2=51754408.1.2.3 switch=y r1=0.001 x1=0.001 r0=0.001 x0=0.001 Length=0.001 units=km
New Line.51754428$51754436 phases=3 Bus1=51754409.1.2.3 Bus2=51754415.1.2.3 switch=y r1=0.001 x1=0.001 r0=0.001 x0=0.001 Length=0.001 units=km
New Line.94436655 phases=1 Bus1=94436657.2 Bus2=94436658.2 switch=y r1=0.001 x1=0.001 r0=0.001 x0=0.001 Length=0.001 units=km
New Line.96618765 phases=1 Bus1=96618767.2 Bus2=96618768.2 switch=y r1=0.001 x1=0.001 r0=0.001 x0=0.001 Length=0.001 units=km
New Line.51725629$51725637 phases=3 Bus1=51725602.1.2.3 Bus2=51725608.1.2.3 switch=y r1=0.001 x1=0.001 r0=0.001 x0=0.001 Length=0.001 units=km
New Line.94436331 phases=1 Bus1=94436333.1 Bus2=94436334.1 switch=y r1=0.001 x1=0.001 r0=0.001 x0=0.001 Length=0.001 units=km
New Line.96303780 phases=1 Bus1=96303782.3 Bus2=96303783.3 switch=y r1=0.001 x1=0.001 r0=0.001 x0=0.001 Length=0.001 units=km
New Line.167797178$PME7594-2 phases=3 Bus1=167797144.1.2.3 Bus2=167797145.1.2.3 switch=y r1=0.001 x1=0.001 r0=0.001 x0=0.001 Length=0.001 units=km
New Line.5356966:GS2316-3 phases=3 Bus1=51676632.1.2.3 Bus2=51676609.1.2.3 switch=y r1=0.001 x1=0.001 r0=0.001 x0=0.001 Length=0.001 units=km
New Line.5356966:GS2316-2 phases=3 Bus1=51676603.1.2.3 Bus2=51676624.1.2.3 switch=y r1=0.001 x1=0.001 r0=0.001 x0=0.001 Length=0.001 units=km
New Line.5356966:GS2316-1 phases=3 Bus1=51676602.1.2.3 Bus2=51676616.1.2.3 switch=y r1=0.001 x1=0.001 r0=0.001 x0=0.001 Length=0.001 units=km
New Line.5583705:J705A-3 phases=3 Bus1=110392972.1.2.3 Bus2=110392973.1.2.3 switch=y r1=0.001 x1=0.001 r0=0.001 x0=0.001 Length=0.001 units=km
New Line.4171030E:4171030E phases=3 Bus1=51754859.1.2.3 Bus2=51754860.1.2.3 switch=y r1=0.001 x1=0.001 r0=0.001 x0=0.001 Length=0.001 units=km
New Line.5583705:J705A-2 phases=3 Bus1=110392981.1.2.3 Bus2=110392980.1.2.3 switch=y r1=0.001 x1=0.001 r0=0.001 x0=0.001 Length=0.001 units=km
New Line.5583705:J705A-1 phases=3 Bus1=110392965.1.2.3 Bus2=110392964.1.2.3 switch=y r1=0.001 x1=0.001 r0=0.001 x0=0.001 Length=0.001 units=km
New Line.4171056E:PS9186 phases=3 Bus1=204253096.1.2.3 Bus2=204253095.1.2.3 switch=y r1=0.001 x1=0.001 r0=0.001 x0=0.001 Length=0.001 units=km
New Line.4171059E:PS0838 phases=3 Bus1=51754754.1.2.3 Bus2=51754755.1.2.3 switch=y r1=0.001 x1=0.001 r0=0.001 x0=0.001 Length=0.001 units=km enabled=false
New Line.4170995E:4170995E phases=3 Bus1=51676742.1.2.3 Bus2=51676741.1.2.3 switch=y r1=0.001 x1=0.001 r0=0.001 x0=0.001 Length=0.001 units=km
New Line.4171052E:4171052E phases=3 Bus1=51728727.1.2.3 Bus2=51728728.1.2.3 switch=y r1=0.001 x1=0.001 r0=0.001 x0=0.001 Length=0.001 units=km
New Line.2203913E:2203913E phases=3 Bus1=51728757.1.2.3 Bus2=51728758.1.2.3 switch=y r1=0.001 x1=0.001 r0=0.001 x0=0.001 Length=0.001 units=km
New Line.5171376:PME1026-2 phases=3 Bus1=51728935.1.2.3 Bus2=51728908.1.2.3 switch=y r1=0.001 x1=0.001 r0=0.001 x0=0.001 Length=0.001 units=km
New Line.5060476:J476A-3 phases=3 Bus1=94435663.1.2.3 Bus2=94435664.1.2.3 switch=y r1=0.001 x1=0.001 r0=0.001 x0=0.001 Length=0.001 units=km
New Line.5060476:J476A-2 phases=3 Bus1=94435672.1.2.3 Bus2=94435671.1.2.3 switch=y r1=0.001 x1=0.001 r0=0.001 x0=0.001 Length=0.001 units=km
New Line.5060476:J476A-1 phases=3 Bus1=94435656.1.2.3 Bus2=94435655.1.2.3 switch=y r1=0.001 x1=0.001 r0=0.001 x0=0.001 Length=0.001 units=km
New Line.5563257:PME6212-4 phases=3 Bus1=94435821.1.2.3 Bus2=94435807.1.2.3 switch=y r1=0.001 x1=0.001 r0=0.001 x0=0.001 Length=0.001 units=km
New Line.5060611:B5060611-1 phases=1 Bus1=51677959.2 Bus2=51677960.2 switch=y r1=0.001 x1=0.001 r0=0.001 x0=0.001 Length=0.001 units=km
New Line.5060611:B5060611-2 phases=1 Bus1=51677960.2 Bus2=51677968.2 switch=y r1=0.001 x1=0.001 r0=0.001 x0=0.001 Length=0.001 units=km
New Line.5044066:GS0953-1 phases=3 Bus1=51714579.1.2.3 Bus2=51714565.1.2.3 switch=y r1=0.001 x1=0.001 r0=0.001 x0=0.001 Length=0.001 units=km
New Line.96303680 phases=1 Bus1=96303683.3 Bus2=96303682.3 switch=y r1=0.001 x1=0.001 r0=0.001 x0=0.001 Length=0.001 units=km
New Line.OS0949-1$51726651 phases=3 Bus1=51726634.1.2.3 Bus2=51726633.1.2.3 switch=y r1=0.001 x1=0.001 r0=0.001 x0=0.001 Length=0.001 units=km
New Line.51726651$51726667 phases=3 Bus1=51726634.1.2.3 Bus2=51726640.1.2.3 switch=y r1=0.001 x1=0.001 r0=0.001 x0=0.001 Length=0.001 units=km
New Line.51726667$OS0949-4 phases=3 Bus1=51726640.1.2.3 Bus2=51726646.1.2.3 switch=y r1=0.001 x1=0.001 r0=0.001 x0=0.001 Length=0.001 units=km
New Line.94436530 phases=1 Bus1=94436533.1 Bus2=94436532.1 switch=y r1=0.001 x1=0.001 r0=0.001 x0=0.001 Length=0.001 units=km
New Line.96303705 phases=1 Bus1=96303707.3 Bus2=96303708.3 switch=y r1=0.001 x1=0.001 r0=0.001 x0=0.001 Length=0.001 units=km
New Line.96303805 phases=1 Bus1=96303808.3 Bus2=96303807.3 switch=y r1=0.001 x1=0.001 r0=0.001 x0=0.001 Length=0.001 units=km
New Line.71658451 phases=1 Bus1=71658453.3 Bus2=71658454.3 switch=y r1=0.001 x1=0.001 r0=0.001 x0=0.001 Length=0.001 units=km
New Line.96303830 phases=1 Bus1=96303832.3 Bus2=96303833.3 switch=y r1=0.001 x1=0.001 r0=0.001 x0=0.001 Length=0.001 units=km
New Line.96618588 phases=1 Bus1=96618590.1 Bus2=96618591.1 switch=y r1=0.001 x1=0.001 r0=0.001 x0=0.001 Length=0.001 units=km
New Line.169833975 phases=3 Bus1=169833977.1.2.3 Bus2=169833978.1.2.3 switch=y r1=0.001 x1=0.001 r0=0.001 x0=0.001 Length=0.001 units=km
New Line.177747124 phases=1 Bus1=177747126.2 Bus2=177747127.2 switch=y r1=0.001 x1=0.001 r0=0.001 x0=0.001 Length=0.001 units=km
New Line.GS2830-2$51753088 phases=3 Bus1=51753067.1.2.3 Bus2=51753061.1.2.3 switch=y r1=0.001 x1=0.001 r0=0.001 x0=0.001 Length=0.001 units=km
New Line.PME2784-3$PME2784-4 phases=3 Bus1=62512486.1.2.3 Bus2=62512485.1.2.3 switch=y r1=0.001 x1=0.001 r0=0.001 x0=0.001 Length=0.001 units=km
New Line.51753072$GS2830-2 phases=3 Bus1=51753061.1.2.3 Bus2=51753060.1.2.3 switch=y r1=0.001 x1=0.001 r0=0.001 x0=0.001 Length=0.001 units=km
New Line.96303730 phases=1 Bus1=96303733.3 Bus2=96303732.3 switch=y r1=0.001 x1=0.001 r0=0.001 x0=0.001 Length=0.001 units=km
New Line.169351403 phases=3 Bus1=169351405.1.2.3 Bus2=169351406.1.2.3 switch=y r1=0.001 x1=0.001 r0=0.001 x0=0.001 Length=0.001 units=km
New Line.PME7804-4$PME7804-1 phases=3 Bus1=169833622.1.2.3 Bus2=169833623.1.2.3 switch=y r1=0.001 x1=0.001 r0=0.001 x0=0.001 Length=0.001 units=km
New Line.PME7804-4$PME7804-3 phases=3 Bus1=169833622.1.2.3 Bus2=169833629.1.2.3 switch=y r1=0.001 x1=0.001 r0=0.001 x0=0.001 Length=0.001 units=km
New Line.239853580 phases=3 Bus1=239853583.1.2.3 Bus2=239853582.1.2.3 switch=y r1=0.001 x1=0.001 r0=0.001 x0=0.001 Length=0.001 units=km
New Line.71658420 phases=1 Bus1=71658423.3 Bus2=71658422.3 switch=y r1=0.001 x1=0.001 r0=0.001 x0=0.001 Length=0.001 units=km
New Line.177747087 phases=1 Bus1=177747090.2 Bus2=177747089.2 switch=y r1=0.001 x1=0.001 r0=0.001 x0=0.001 Length=0.001 units=km
New Line.62490522 phases=1 Bus1=62490524.2 Bus2=62490557.2 switch=y r1=0.001 x1=0.001 r0=0.001 x0=0.001 Length=0.001 units=km
New Line.96303755 phases=1 Bus1=96303757.3 Bus2=96303758.3 switch=y r1=0.001 x1=0.001 r0=0.001 x0=0.001 Length=0.001 units=km
New Line.96618615 phases=1 Bus1=96618618.1 Bus2=96618617.1 switch=y r1=0.001 x1=0.001 r0=0.001 x0=0.001 Length=0.001 units=km
New Line.171017708 phases=1 Bus1=171017711.2 Bus2=171017710.2 switch=y r1=0.001 x1=0.001 r0=0.001 x0=0.001 Length=0.001 units=km
New Line.GS2150-1$GS2150-2 phases=3 Bus1=241946224.1.2.3 Bus2=241946225.1.2.3 switch=y r1=0.001 x1=0.001 r0=0.001 x0=0.001 Length=0.001 units=km
New Line.71658485 phases=1 Bus1=71658487.3 Bus2=71658488.3 switch=y r1=0.001 x1=0.001 r0=0.001 x0=0.001 Length=0.001 units=km
New Line.169255762 phases=1 Bus1=169255765.3 Bus2=169255764.3 switch=y r1=0.001 x1=0.001 r0=0.001 x0=0.001 Length=0.001 units=km
New Line.169351599 phases=1 Bus1=169351602.3 Bus2=169351601.3 switch=y r1=0.001 x1=0.001 r0=0.001 x0=0.001 Length=0.001 units=km
New Line.171017550 phases=1 Bus1=171017553.1 Bus2=171017552.1 switch=y r1=0.001 x1=0.001 r0=0.001 x0=0.001 Length=0.001 units=km
New Line.236906103 phases=3 Bus1=236906105.1.2.3 Bus2=236906106.1.2.3 switch=y r1=0.001 x1=0.001 r0=0.001 x0=0.001 Length=0.001 units=km
New Line.GS2150-2$GS2150-3 phases=3 Bus1=241946225.1.2.3 Bus2=241946231.1.2.3 switch=y r1=0.001 x1=0.001 r0=0.001 x0=0.001 Length=0.001 units=km
New Line.51753712$RCS2829-2 phases=3 Bus1=51753686.1.2.3 Bus2=51753687.1.2.3 switch=y r1=0.001 x1=0.001 r0=0.001 x0=0.001 Length=0.001 units=km
New Line.96618640 phases=1 Bus1=96618642.1 Bus2=96618643.1 switch=y r1=0.001 x1=0.001 r0=0.001 x0=0.001 Length=0.001 units=km
New Line.169351536 phases=1 Bus1=169351539.1 Bus2=169351538.1 switch=y r1=0.001 x1=0.001 r0=0.001 x0=0.001 Length=0.001 units=km
New Line.171018558 phases=1 Bus1=171018560.2 Bus2=171018561.2 switch=y r1=0.001 x1=0.001 r0=0.001 x0=0.001 Length=0.001 units=km
New Line.GS2150-3$GS2150-4 phases=3 Bus1=241946231.1.2.3 Bus2=241946237.1.2.3 switch=y r1=0.001 x1=0.001 r0=0.001 x0=0.001 Length=0.001 units=km
New Line.RCS2829-2$RCS2829-3 phases=3 Bus1=51753687.1.2.3 Bus2=51753693.1.2.3 switch=y r1=0.001 x1=0.001 r0=0.001 x0=0.001 Length=0.001 units=km
New Line.62489769 phases=1 Bus1=62489771.2 Bus2=62489772.2 switch=y r1=0.001 x1=0.001 r0=0.001 x0=0.001 Length=0.001 units=km
New Line.62489933 phases=1 Bus1=62489935.2 Bus2=62489936.2 switch=y r1=0.001 x1=0.001 r0=0.001 x0=0.001 Length=0.001 units=km
New Line.62525323 phases=1 Bus1=62525325.2 Bus2=62525326.2 switch=y r1=0.001 x1=0.001 r0=0.001 x0=0.001 Length=0.001 units=km
New Line.169351487 phases=1 Bus1=169351490.2 Bus2=169351489.2 switch=y r1=0.001 x1=0.001 r0=0.001 x0=0.001 Length=0.001 units=km
New Line.GS2150-4$GS2150-5 phases=3 Bus1=241946237.1.2.3 Bus2=241946243.1.2.3 switch=y r1=0.001 x1=0.001 r0=0.001 x0=0.001 Length=0.001 units=km
New Line.RCS2829-3$51753728 phases=3 Bus1=51753693.1.2.3 Bus2=51753699.1.2.3 switch=y r1=0.001 x1=0.001 r0=0.001 x0=0.001 Length=0.001 units=km
New Line.62490532 phases=1 Bus1=62490535.2 Bus2=62490534.2 switch=y r1=0.001 x1=0.001 r0=0.001 x0=0.001 Length=0.001 units=km
New Line.70835130 phases=1 Bus1=70835132.3 Bus2=70835133.3 switch=y r1=0.001 x1=0.001 r0=0.001 x0=0.001 Length=0.001 units=km
New Line.GS2150-5$GS2150-6 phases=3 Bus1=241946243.1.2.3 Bus2=241946249.1.2.3 switch=y r1=0.001 x1=0.001 r0=0.001 x0=0.001 Length=0.001 units=km
New Line.171017886$171017894 phases=3 Bus1=171017898.1.2.3 Bus2=171017890.1.2.3 switch=y r1=0.001 x1=0.001 r0=0.001 x0=0.001 Length=0.001 units=km
New Line.238825425 phases=1 Bus1=238825428.3 Bus2=238825427.3 switch=y r1=0.001 x1=0.001 r0=0.001 x0=0.001 Length=0.001 units=km
New Line.238825637 phases=1 Bus1=238825640.3 Bus2=238825639.3 switch=y r1=0.001 x1=0.001 r0=0.001 x0=0.001 Length=0.001 units=km
New Line.239853127 phases=1 Bus1=239853130.2 Bus2=239853129.2 switch=y r1=0.001 x1=0.001 r0=0.001 x0=0.001 Length=0.001 units=km
New Line.241947150 phases=3 Bus1=241947152.1.2.3 Bus2=241947153.1.2.3 switch=y r1=0.001 x1=0.001 r0=0.001 x0=0.001 Length=0.001 units=km
New Line.62489595 phases=1 Bus1=62489598.2 Bus2=62489597.2 switch=y r1=0.001 x1=0.001 r0=0.001 x0=0.001 Length=0.001 units=km
New Line.73711513 phases=3 Bus1=73711515.1.2.3 Bus2=73711516.1.2.3 switch=y r1=0.001 x1=0.001 r0=0.001 x0=0.001 Length=0.001 units=km
New Line.171017902$171017886 phases=3 Bus1=171017890.1.2.3 Bus2=171017906.1.2.3 switch=y r1=0.001 x1=0.001 r0=0.001 x0=0.001 Length=0.001 units=km
New Line.239853100 phases=1 Bus1=239853103.2 Bus2=239853102.2 switch=y r1=0.001 x1=0.001 r0=0.001 x0=0.001 Length=0.001 units=km
New Line.62489513 phases=1 Bus1=62489515.2 Bus2=62489538.2 switch=y r1=0.001 x1=0.001 r0=0.001 x0=0.001 Length=0.001 units=km
New Line.62490440 phases=1 Bus1=62490442.2 Bus2=62490443.2 switch=y r1=0.001 x1=0.001 r0=0.001 x0=0.001 Length=0.001 units=km
New Line.96618665 phases=1 Bus1=96618668.1 Bus2=96618667.1 switch=y r1=0.001 x1=0.001 r0=0.001 x0=0.001 Length=0.001 units=km
New Line.163382435 phases=3 Bus1=163382437.1.2.3 Bus2=163382438.1.2.3 switch=y r1=0.001 x1=0.001 r0=0.001 x0=0.001 Length=0.001 units=km
New Line.171017612 phases=1 Bus1=171017615.1 Bus2=171017614.1 switch=y r1=0.001 x1=0.001 r0=0.001 x0=0.001 Length=0.001 units=km
New Line.171017644 phases=1 Bus1=171017647.1 Bus2=171017646.1 switch=y r1=0.001 x1=0.001 r0=0.001 x0=0.001 Length=0.001 units=km
New Line.171017878$171017902 phases=3 Bus1=171017906.1.2.3 Bus2=171017882.1.2.3 switch=y r1=0.001 x1=0.001 r0=0.001 x0=0.001 Length=0.001 units=km
New Line.238824865 phases=1 Bus1=238824868.1 Bus2=238824867.1 switch=y r1=0.001 x1=0.001 r0=0.001 x0=0.001 Length=0.001 units=km
New Line.238825452 phases=1 Bus1=238825454.3 Bus2=238825455.3 switch=y r1=0.001 x1=0.001 r0=0.001 x0=0.001 Length=0.001 units=km
New Line.239853152 phases=1 Bus1=239853155.1 Bus2=239853154.1 switch=y r1=0.001 x1=0.001 r0=0.001 x0=0.001 Length=0.001 units=km
New Line.239853387 phases=1 Bus1=239853389.2 Bus2=239853390.2 switch=y r1=0.001 x1=0.001 r0=0.001 x0=0.001 Length=0.001 units=km
New Line.5044066:GS0953-2 phases=3 Bus1=51714566.1.2.3 Bus2=51714587.1.2.3 switch=y r1=0.001 x1=0.001 r0=0.001 x0=0.001 Length=0.001 units=km
New Line.5044066:GS0953-3 phases=3 Bus1=51714572.1.2.3 Bus2=51714595.1.2.3 switch=y r1=0.001 x1=0.001 r0=0.001 x0=0.001 Length=0.001 units=km
New Line.5136095:GS0971-2 phases=3 Bus1=51754430.1.2.3 Bus2=51754409.1.2.3 switch=y r1=0.001 x1=0.001 r0=0.001 x0=0.001 Length=0.001 units=km
New Line.5136095:GS0971-1 phases=3 Bus1=51754408.1.2.3 Bus2=51754422.1.2.3 switch=y r1=0.001 x1=0.001 r0=0.001 x0=0.001 Length=0.001 units=km
New Line.5136095:GS0971-3 phases=3 Bus1=51754415.1.2.3 Bus2=51754438.1.2.3 switch=y r1=0.001 x1=0.001 r0=0.001 x0=0.001 Length=0.001 units=km
New Line.4171057E:51728794 phases=3 Bus1=51728796.1.2.3 Bus2=51728797.1.2.3 switch=y r1=0.001 x1=0.001 r0=0.001 x0=0.001 Length=0.001 units=km
New Line.4171055E:51752982 phases=3 Bus1=51752984.1.2.3 Bus2=51752985.1.2.3 switch=y r1=0.001 x1=0.001 r0=0.001 x0=0.001 Length=0.001 units=km
New Line.4171058E:191767752 phases=3 Bus1=191767754.1.2.3 Bus2=191767755.1.2.3 switch=y r1=0.001 x1=0.001 r0=0.001 x0=0.001 Length=0.001 units=km
New Line.4171050E:51754237 phases=3 Bus1=51754239.1.2.3 Bus2=51754240.1.2.3 switch=y r1=0.001 x1=0.001 r0=0.001 x0=0.001 Length=0.001 units=km
New Line.2173065E:51728823 phases=3 Bus1=51728825.1.2.3 Bus2=51728826.1.2.3 switch=y r1=0.001 x1=0.001 r0=0.001 x0=0.001 Length=0.001 units=km
New Line.2173064E:51728852 phases=3 Bus1=51728854.1.2.3 Bus2=51728855.1.2.3 switch=y r1=0.001 x1=0.001 r0=0.001 x0=0.001 Length=0.001 units=km
New Line.2226039E:51728881 phases=3 Bus1=51728883.1.2.3 Bus2=51728884.1.2.3 switch=y r1=0.001 x1=0.001 r0=0.001 x0=0.001 Length=0.001 units=km
New Line.5583706:P5583706-1 phases=2 Bus1=110392918.1.3 Bus2=110392919.1.3 switch=y r1=0.001 x1=0.001 r0=0.001 x0=0.001 Length=0.001 units=km
New Line.5060478:GS0970-2 phases=3 Bus1=51676794.1.2.3 Bus2=51676773.1.2.3 switch=y r1=0.001 x1=0.001 r0=0.001 x0=0.001 Length=0.001 units=km
New Line.5060478:GS0970-1 phases=3 Bus1=51676772.1.2.3 Bus2=51676786.1.2.3 switch=y r1=0.001 x1=0.001 r0=0.001 x0=0.001 Length=0.001 units=km
New Line.5060478:GS0970-3 phases=3 Bus1=51676779.1.2.3 Bus2=51676802.1.2.3 switch=y r1=0.001 x1=0.001 r0=0.001 x0=0.001 Length=0.001 units=km
New Line.5051180:RCS0963-3 phases=3 Bus1=143651547.1.2.3 Bus2=143651524.1.2.3 switch=y r1=0.001 x1=0.001 r0=0.001 x0=0.001 Length=0.001 units=km
New Line.5060478:V5060478-1 phases=1 Bus1=51754026.1 Bus2=51754027.1 switch=y r1=0.001 x1=0.001 r0=0.001 x0=0.001 Length=0.001 units=km
New Line.5051180:RCS0963-2 phases=3 Bus1=143651518.1.2.3 Bus2=143651539.1.2.3 switch=y r1=0.001 x1=0.001 r0=0.001 x0=0.001 Length=0.001 units=km
New Line.5359540:P5359540-2 phases=1 Bus1=51751548.1 Bus2=51751540.1 switch=y r1=0.001 x1=0.001 r0=0.001 x0=0.001 Length=0.001 units=km
New Line.5060478:V5060478-2 phases=1 Bus1=51754027.1 Bus2=51754035.1 switch=y r1=0.001 x1=0.001 r0=0.001 x0=0.001 Length=0.001 units=km
New Line.5051180:RCS0963-1 phases=3 Bus1=143651517.1.2.3 Bus2=143651531.1.2.3 switch=y r1=0.001 x1=0.001 r0=0.001 x0=0.001 Length=0.001 units=km
New Line.5359540:P5359540-1 phases=1 Bus1=51751540.1 Bus2=51751539.1 switch=y r1=0.001 x1=0.001 r0=0.001 x0=0.001 Length=0.001 units=km
New Line.5312565:B5312565-1 phases=1 Bus1=51752694.3 Bus2=51752695.3 switch=y r1=0.001 x1=0.001 r0=0.001 x0=0.001 Length=0.001 units=km
New Line.5312560:B5312560-2 phases=1 Bus1=51754179.1 Bus2=51754171.1 switch=y r1=0.001 x1=0.001 r0=0.001 x0=0.001 Length=0.001 units=km
New Line.5060470:B5060470-1 phases=1 Bus1=51677743.1 Bus2=51677744.1 switch=y r1=0.001 x1=0.001 r0=0.001 x0=0.001 Length=0.001 units=km
New Line.5359546:P5359546-1 phases=1 Bus1=51729133.2 Bus2=51729134.2 switch=y r1=0.001 x1=0.001 r0=0.001 x0=0.001 Length=0.001 units=km
New Line.5359547:P5359547-1 phases=1 Bus1=51729277.2 Bus2=51729278.2 switch=y r1=0.001 x1=0.001 r0=0.001 x0=0.001 Length=0.001 units=km
New Line.5359536:P5359536-1 phases=1 Bus1=51751467.3 Bus2=51751468.3 switch=y r1=0.001 x1=0.001 r0=0.001 x0=0.001 Length=0.001 units=km
New Line.5359548:P5359548-2 phases=1 Bus1=51751836.2 Bus2=51751828.2 switch=y r1=0.001 x1=0.001 r0=0.001 x0=0.001 Length=0.001 units=km
New Line.5171451:B5171451-1 phases=1 Bus1=51751899.1 Bus2=51751900.1 switch=y r1=0.001 x1=0.001 r0=0.001 x0=0.001 Length=0.001 units=km
New Line.5171458:B5171458-2 phases=1 Bus1=51752268.2 Bus2=51752260.2 switch=y r1=0.001 x1=0.001 r0=0.001 x0=0.001 Length=0.001 units=km
New Line.5312565:B5312565-2 phases=1 Bus1=51752695.3 Bus2=51752703.3 switch=y r1=0.001 x1=0.001 r0=0.001 x0=0.001 Length=0.001 units=km
New Line.5312560:B5312560-1 phases=1 Bus1=51754171.1 Bus2=51754170.1 switch=y r1=0.001 x1=0.001 r0=0.001 x0=0.001 Length=0.001 units=km
New Line.5051181:GS7036-3 phases=3 Bus1=144991911.1.2.3 Bus2=144991888.1.2.3 switch=y r1=0.001 x1=0.001 r0=0.001 x0=0.001 Length=0.001 units=km
New Line.5060470:B5060470-2 phases=1 Bus1=51677744.1 Bus2=51677752.1 switch=y r1=0.001 x1=0.001 r0=0.001 x0=0.001 Length=0.001 units=km
New Line.5359536:P5359536-2 phases=1 Bus1=51751468.3 Bus2=51751476.3 switch=y r1=0.001 x1=0.001 r0=0.001 x0=0.001 Length=0.001 units=km
New Line.5359542:P5359542-2 phases=1 Bus1=51751620.1 Bus2=51751612.1 switch=y r1=0.001 x1=0.001 r0=0.001 x0=0.001 Length=0.001 units=km
New Line.5359548:P5359548-1 phases=1 Bus1=51751828.2 Bus2=51751827.2 switch=y r1=0.001 x1=0.001 r0=0.001 x0=0.001 Length=0.001 units=km
New Line.5171451:B5171451-2 phases=1 Bus1=51751900.1 Bus2=51751908.1 switch=y r1=0.001 x1=0.001 r0=0.001 x0=0.001 Length=0.001 units=km
New Line.5171458:B5171458-1 phases=1 Bus1=51752260.2 Bus2=51752259.2 switch=y r1=0.001 x1=0.001 r0=0.001 x0=0.001 Length=0.001 units=km
New Line.5359542:P5359542-1 phases=1 Bus1=51751612.1 Bus2=51751611.1 switch=y r1=0.001 x1=0.001 r0=0.001 x0=0.001 Length=0.001 units=km
New Line.5312561:B5312561-1 phases=1 Bus1=51752478.1 Bus2=51752479.1 switch=y r1=0.001 x1=0.001 r0=0.001 x0=0.001 Length=0.001 units=km
New Line.5312567:B5312567-2 phases=1 Bus1=100099604.3 Bus2=100099596.3 switch=y r1=0.001 x1=0.001 r0=0.001 x0=0.001 Length=0.001 units=km
New Line.5051181:GS7036-2 phases=3 Bus1=144991882.1.2.3 Bus2=144991903.1.2.3 switch=y r1=0.001 x1=0.001 r0=0.001 x0=0.001 Length=0.001 units=km
New Line.5060471:B5060471-1 phases=1 Bus1=51677815.1 Bus2=51677816.1 switch=y r1=0.001 x1=0.001 r0=0.001 x0=0.001 Length=0.001 units=km
New Line.5359549:P5359549-2 phases=1 Bus1=51729358.2 Bus2=51729350.2 switch=y r1=0.001 x1=0.001 r0=0.001 x0=0.001 Length=0.001 units=km
New Line.5312566:B5312566-1 phases=1 Bus1=51729709.3 Bus2=51729710.3 switch=y r1=0.001 x1=0.001 r0=0.001 x0=0.001 Length=0.001 units=km
New Line.5171452:B5171452-1 phases=1 Bus1=51751971.1 Bus2=51751972.1 switch=y r1=0.001 x1=0.001 r0=0.001 x0=0.001 Length=0.001 units=km
New Line.5312561:B5312561-2 phases=1 Bus1=51752479.1 Bus2=51752487.1 switch=y r1=0.001 x1=0.001 r0=0.001 x0=0.001 Length=0.001 units=km
New Line.5359537:P5359537-1 phases=1 Bus1=51753442.3 Bus2=51753443.3 switch=y r1=0.001 x1=0.001 r0=0.001 x0=0.001 Length=0.001 units=km
New Line.5312567:B5312567-1 phases=1 Bus1=100099596.3 Bus2=100099595.3 switch=y r1=0.001 x1=0.001 r0=0.001 x0=0.001 Length=0.001 units=km
New Line.5051181:GS7036-1 phases=3 Bus1=144991881.1.2.3 Bus2=144991895.1.2.3 switch=y r1=0.001 x1=0.001 r0=0.001 x0=0.001 Length=0.001 units=km
New Line.5060471:B5060471-2 phases=1 Bus1=51677816.1 Bus2=51677824.1 switch=y r1=0.001 x1=0.001 r0=0.001 x0=0.001 Length=0.001 units=km
New Line.5060607:B5060607-1 phases=1 Bus1=51678178.3 Bus2=51678179.3 switch=y r1=0.001 x1=0.001 r0=0.001 x0=0.001 Length=0.001 units=km
New Line.5359543:P5359543-2 phases=1 Bus1=51751692.1 Bus2=51751684.1 switch=y r1=0.001 x1=0.001 r0=0.001 x0=0.001 Length=0.001 units=km
New Line.5171452:B5171452-2 phases=1 Bus1=51751972.1 Bus2=51751980.1 switch=y r1=0.001 x1=0.001 r0=0.001 x0=0.001 Length=0.001 units=km
New Line.5171461:B5171461-2 phases=1 Bus1=51752340.2 Bus2=51752332.2 switch=y r1=0.001 x1=0.001 r0=0.001 x0=0.001 Length=0.001 units=km
New Line.5171457:B5171457-2 phases=1 Bus1=51752415.2 Bus2=51752407.2 switch=y r1=0.001 x1=0.001 r0=0.001 x0=0.001 Length=0.001 units=km
New Line.5359537:P5359537-2 phases=1 Bus1=51753443.3 Bus2=51753451.3 switch=y r1=0.001 x1=0.001 r0=0.001 x0=0.001 Length=0.001 units=km
New Line.5060607:B5060607-2 phases=1 Bus1=51678179.3 Bus2=51678187.3 switch=y r1=0.001 x1=0.001 r0=0.001 x0=0.001 Length=0.001 units=km
New Line.5060601:B5060601-2 phases=1 Bus1=51712902.1 Bus2=51712894.1 switch=y r1=0.001 x1=0.001 r0=0.001 x0=0.001 Length=0.001 units=km
New Line.5051169:B5051169-2 phases=1 Bus1=51713046.3 Bus2=51713038.3 switch=y r1=0.001 x1=0.001 r0=0.001 x0=0.001 Length=0.001 units=km
New Line.5312562:B5312562-2 phases=1 Bus1=51751404.1 Bus2=51751396.1 switch=y r1=0.001 x1=0.001 r0=0.001 x0=0.001 Length=0.001 units=km
New Line.5359543:P5359543-1 phases=1 Bus1=51751684.1 Bus2=51751683.1 switch=y r1=0.001 x1=0.001 r0=0.001 x0=0.001 Length=0.001 units=km
New Line.5171461:B5171461-1 phases=1 Bus1=51752332.2 Bus2=51752331.2 switch=y r1=0.001 x1=0.001 r0=0.001 x0=0.001 Length=0.001 units=km
New Line.5171457:B5171457-1 phases=1 Bus1=51752407.2 Bus2=51752406.2 switch=y r1=0.001 x1=0.001 r0=0.001 x0=0.001 Length=0.001 units=km
New Line.5060472:B5060472-2 phases=1 Bus1=51677896.1 Bus2=51677888.1 switch=y r1=0.001 x1=0.001 r0=0.001 x0=0.001 Length=0.001 units=km
...

! Loads
New Load.5759228 Bus1=-999999236905656.2.0 phases=1 kV=0.069282 kW=0 kvar=0 model=1
New Load.5136085 Bus1=-99999951714497.1.0 phases=1 kV=0.069282 kW=0 kvar=0 model=1
New Load.5060604 Bus1=-99999951712747.3.0 phases=1 kV=0.069282 kW=0 kvar=0 model=1
New Load.5136078 Bus1=-99999951714209.3.0 phases=1 kV=0.069282 kW=0 kvar=0 model=1
New Load.5359545 Bus1=-99999951729062.1.0 phases=1 kV=0.069282 kW=0 kvar=0 model=1
New Load.5758980 Bus1=-999999238825030.3.0 phases=1 kV=0.069282 kW=0 kvar=0 model=1
New Load.5171455 Bus1=-99999951752188.1.0 phases=1 kV=0.138564 kW=0 kvar=0 model=1
New Load.5051174 Bus1=-99999951713564.3.0 phases=1 kV=0.069282 kW=0 kvar=0 model=1
New Load.5051172 Bus1=-99999951677240.3.0 phases=1 kV=0.069282 kW=0 kvar=0 model=1
New Load.5001323_0 Bus1=-99999951755022.1.2 phases=1 kV=0.069282 kW=0 kvar=0 model=1
New Load.5001323_1 Bus1=-99999951755022.2.3 phases=1 kV=0.069282 kW=0 kvar=0 model=1
New Load.5001323_2 Bus1=-99999951755022.3.1 phases=1 kV=0.069282 kW=0 kvar=0 model=1
New Load.5432852 Bus1=-99999962512297.1.0 phases=1 kV=0.069282 kW=0 kvar=0 model=1
New Load.5136031_0 Bus1=-99999951715405.2.0 phases=1 kV=0.069282 kW=0 kvar=0 model=1
New Load.5136031_1 Bus1=-99999951715405.3.0 phases=1 kV=0.069282 kW=0 kvar=0 model=1
New Load.5136046 Bus1=-99999962507305.3.0 phases=1 kV=0.069282 kW=0 kvar=0 model=1
New Load.5016077 Bus1=-99999951725782.3.0 phases=1 kV=0.069282 kW=0 kvar=0 model=1
New Load.5136045 Bus1=-99999962507377.3.0 phases=1 kV=0.138564 kW=0 kvar=0 model=1
New Load.5634845 Bus1=-999999169833912.1.0 phases=1 kV=0.069282 kW=0 kvar=0 model=1
New Load.4171058E_0 Bus1=-999999191767755.3.0 phases=1 kV=0.069282 kW=0 kvar=0 model=1
New Load.4171058E_1 Bus1=-999999191767755.1.0 phases=1 kV=0.069282 kW=0 kvar=0 model=1
New Load.5016082 Bus1=-999999169255718.1.0 phases=1 kV=0.138564 kW=0 kvar=0 model=1
New Load.5161451 Bus1=-99999951716726.2.0 phases=1 kV=0.138564 kW=0 kvar=0 model=1
New Load.5569270 Bus1=-99999996618953.3.0 phases=1 kV=0.069282 kW=0 kvar=0 model=1
New Load.5152844 Bus1=-99999951716510.2.0 phases=1 kV=0.069282 kW=0 kvar=0 model=1
New Load.5359542 Bus1=-99999951751612.1.0 phases=1 kV=0.069282 kW=0 kvar=0 model=1
New Load.2226039E_0 Bus1=-99999951728884.2.0 phases=1 kV=0.069282 kW=0 kvar=0 model=1
New Load.2226039E_1 Bus1=-99999951728884.3.0 phases=1 kV=0.069282 kW=0 kvar=0 model=1
New Load.5136082 Bus1=-99999951714901.3.0 phases=1 kV=0.069282 kW=0 kvar=0 model=1
New Load.5016073 Bus1=-99999951726093.1.0 phases=1 kV=0.069282 kW=0 kvar=0 model=1
...